ieee33-dg-voltage-regulation/results/S4_SOP_Voltages.csv
Bus, BasekV, Node1, Magnitude1, Angle1, pu1, Node2, Magnitude2, Angle2, pu2, Node3, Magnitude3, Angle3, pu3
"SOURCEBUS", 110, 1,    66619.1,    0.0,     1.049, 2,    66619.1, -120.0,     1.049, 3,    66619.1,  120.0,     1.049
"1", 12.66, 1,     7450.3,   -1.2,    1.0193, 2,     7450.3, -121.2,    1.0193, 3,     7450.3,  118.8,    1.0193
"2", 12.66, 1,     7440.4,   -1.2,    1.0179, 2,     7440.4, -121.2,    1.0179, 3,     7440.4,  118.8,    1.0179
"3", 12.66, 1,     7393.4,   -1.0,    1.0115, 2,     7393.4, -121.0,    1.0115, 3,     7393.4,  119.0,    1.0115
"4", 12.66, 1,    7375.29,   -0.9,     1.009, 2,    7375.29, -120.9,     1.009, 3,    7375.29,  119.1,     1.009
"5", 12.66, 1,    7359.24,   -0.8,    1.0068, 2,    7359.24, -120.8,    1.0068, 3,    7359.24,  119.2,    1.0068
"6", 12.66, 1,    7314.45,   -0.6,    1.0007, 2,    7314.45, -120.6,    1.0007, 3,    7314.45,  119.4,    1.0007
"7", 12.66, 1,    7311.11,   -0.5,    1.0003, 2,    7311.11, -120.5,    1.0003, 3,    7311.11,  119.5,    1.0003
"8", 12.66, 1,    7322.16,   -0.5,    1.0018, 2,    7322.16, -120.5,    1.0018, 3,    7322.16,  119.5,    1.0018
"9", 12.66, 1,     7349.7,   -0.4,    1.0055, 2,     7349.7, -120.4,    1.0055, 3,     7349.7,  119.6,    1.0055
"10", 12.66, 1,    7381.14,   -0.2,    1.0098, 2,    7381.14, -120.2,    1.0098, 3,    7381.14,  119.8,    1.0098
"11", 12.66, 1,    7384.54,   -0.2,    1.0103, 2,    7384.54, -120.2,    1.0103, 3,    7384.54,  119.8,    1.0103
"12", 12.66, 1,    7391.95,   -0.2,    1.0113, 2,    7391.95, -120.2,    1.0113, 3,    7391.95,  119.8,    1.0113
"13", 12.66, 1,    7428.17,    0.0,    1.0163, 2,    7428.17, -120.0,    1.0163, 3,    7428.17,  120.0,    1.0163
"14", 12.66, 1,    7445.18,    0.1,    1.0186, 2,    7445.18, -119.9,    1.0186, 3,    7445.18,  120.1,    1.0186
"15", 12.66, 1,    7467.49,    0.1,    1.0216, 2,    7467.49, -119.9,    1.0216, 3,    7467.49,  120.1,    1.0216
"16", 12.66, 1,    7496.86,    0.2,    1.0257, 2,    7496.86, -119.8,    1.0257, 3,    7496.86,  120.2,    1.0257
"17", 12.66, 1,       7560,    0.6,    1.0343, 2,       7560, -119.4,    1.0343, 3,       7560,  120.6,    1.0343
"18", 12.66, 1,    7594.17,    0.7,     1.039, 2,    7594.17, -119.3,     1.039, 3,    7594.17,  120.7,     1.039
"19", 12.66, 1,    7439.05,   -1.2,    1.0178, 2,    7439.05, -121.2,    1.0178, 3,    7439.05,  118.8,    1.0178
"20", 12.66, 1,    7435.46,   -1.1,    1.0173, 2,    7435.46, -121.1,    1.0173, 3,    7435.46,  118.9,    1.0173
"21", 12.66, 1,    7436.65,   -1.1,    1.0174, 2,    7436.65, -121.1,    1.0174, 3,    7436.65,  118.9,    1.0174
"22", 12.66, 1,    7443.11,   -1.0,    1.0183, 2,    7443.11, -121.0,    1.0183, 3,    7443.11,  119.0,    1.0183
"23", 12.66, 1,    7373.52,   -1.0,    1.0088, 2,    7373.52, -121.0,    1.0088, 3,    7373.52,  119.0,    1.0088
"24", 12.66, 1,    7337.43,   -1.1,    1.0039, 2,    7337.43, -121.1,    1.0039, 3,    7337.43,  118.9,    1.0039
"25", 12.66, 1,    7324.99,   -1.1,    1.0022, 2,    7324.99, -121.1,    1.0022, 3,    7324.99,  118.9,    1.0022
"26", 12.66, 1,    7306.56,   -0.6,   0.99963, 2,    7306.56, -120.6,   0.99963, 3,    7306.56,  119.4,   0.99963
"27", 12.66, 1,    7296.45,   -0.5,   0.99825, 2,    7296.45, -120.5,   0.99825, 3,    7296.45,  119.5,   0.99825
"28", 12.66, 1,    7248.73,   -0.3,   0.99172, 2,    7248.73, -120.3,   0.99172, 3,    7248.73,  119.7,   0.99172
"29", 12.66, 1,    7215.69,   -0.2,    0.9872, 2,    7215.69, -120.2,    0.9872, 3,    7215.69,  119.8,    0.9872
"30", 12.66, 1,    7204.71,    0.0,    0.9857, 2,    7204.71, -120.0,    0.9857, 3,    7204.71,  120.0,    0.9857
"31", 12.66, 1,    7205.15,    0.0,   0.98576, 2,    7205.15, -120.0,   0.98576, 3,    7205.15,  120.0,   0.98576
"32", 12.66, 1,    7208.46,    0.0,   0.98621, 2,    7208.46, -120.0,   0.98621, 3,    7208.46,  120.0,   0.98621
"33", 12.66, 1,    7217.92,    0.1,    0.9875, 2,    7217.92, -119.9,    0.9875, 3,    7217.92,  120.1,    0.9875
